# Napa Valley Integrated Hydrologic Model (NVIHM)
# MODFLOW Basic (BAS) Package
FREE SHOWPROGRESS PRINTTIME 
OPEN/CLOSE  .\Data_ModelArrays\iBound\ibound_top.txt     1 (FREE) -1  # 2: IBOUND - U2DREL (IBOUND - Layer 1)
OPEN/CLOSE  .\Data_ModelArrays\iBound\ibound_top.txt     1 (FREE) -1  # 2: IBOUND - U2DREL (IBOUND - Layer 2)
OPEN/CLOSE  .\Data_ModelArrays\iBound\ibound_top.txt     1 (FREE) -1  # 2: IBOUND - U2DREL (IBOUND - Layer 3)
OPEN/CLOSE  .\Data_ModelArrays\iBound\ibound_bedrock.txt 1 (FREE) -1  # 2: IBOUND - U2DREL (IBOUND - Layer 4)
OPEN/CLOSE  .\Data_ModelArrays\iBound\ibound_bedrock.txt 1 (FREE) -1  # 2: IBOUND - U2DREL (IBOUND - Layer 5)
OPEN/CLOSE  .\Data_ModelArrays\iBound\ibound_bedrock.txt 1 (FREE) -1  # 2: IBOUND - U2DREL (IBOUND - Layer 6)
OPEN/CLOSE  .\Data_ModelArrays\iBound\ibound_bedrock.txt 1 (FREE) -1  # 2: IBOUND - U2DREL (IBOUND - Layer 7)
OPEN/CLOSE  .\Data_ModelArrays\iBound\ibound_bedrock.txt 1 (FREE) -1  # 2: IBOUND - U2DREL (IBOUND - Layer 8)
OPEN/CLOSE  .\Data_ModelArrays\iBound\ibound_bedrock.txt 1 (FREE) -1  # 2: IBOUND - U2DREL (IBOUND - Layer 9)
OPEN/CLOSE  .\Data_ModelArrays\iBound\ibound_bedrock.txt 1 (FREE) -1  # 2: IBOUND - U2DREL (IBOUND - Layer 10)
  -99999                                                            # 3: HNOFLO (Head value in inactive cells)
OPEN/CLOSE  .\Data_ModelArrays\iHead\iHead_new.dat    .99905000000 (FREE) -1  # 2: STRT - U2DREL (Initial Head - Layer 1)
OPEN/CLOSE  .\Data_ModelArrays\iHead\iHead_new.dat    .99905000000 (FREE) -1  # 2: STRT - U2DREL (Initial Head - Layer 2)
OPEN/CLOSE  .\Data_ModelArrays\iHead\iHead_new.dat    .99900000000 (FREE) -1  # 2: STRT - U2DREL (Initial Head - Layer 3)
OPEN/CLOSE  .\Data_ModelArrays\iHead\iHead_new.dat    .99890000000 (FREE) -1  # 2: STRT - U2DREL (Initial Head - Layer 4)
OPEN/CLOSE  .\Data_ModelArrays\iHead\iHead_new.dat    .99880000000 (FREE) -1  # 2: STRT - U2DREL (Initial Head - Layer 5)
OPEN/CLOSE  .\Data_ModelArrays\iHead\iHead_new.dat    .99700000000 (FREE) -1  # 2: STRT - U2DREL (Initial Head - Layer 6)
OPEN/CLOSE  .\Data_ModelArrays\iHead\iHead_new.dat    .99620000000 (FREE) -1  # 2: STRT - U2DREL (Initial Head - Layer 7)
OPEN/CLOSE  .\Data_ModelArrays\iHead\iHead_new.dat    .99600000000 (FREE) -1  # 2: STRT - U2DREL (Initial Head - Layer 8)
OPEN/CLOSE  .\Data_ModelArrays\iHead\iHead_new.dat    .99500000000 (FREE) -1  # 2: STRT - U2DREL (Initial Head - Layer 9)
OPEN/CLOSE  .\Data_ModelArrays\iHead\iHead_new.dat   9.9500000E-01 (FREE) -1  # 2: STRT - U2DREL (Initial Head - Layer 10)
