# Napa Valley Integrated Hydrologic Model (NVIHM)
# MODFLOW Discretization Package
10  489  180  474  4  1                                                       # 1: NLAY, NROW, NCOL, NPER, ITMUNI, LENUNI
0  0  0  0  0  0  0  0  0  0                                                  # 2: LAYCBD (No Quasi 3D Confining Beds)
CONSTANT  500                                                                 # 3: DELR (Width along rows)
CONSTANT  500                                                                 # 4: DELC (Width along columns)
OPEN/CLOSE  .\Data_ModelArrays\LayerElevations\LandSurface.txt  1 (FREE) -1   # 5: Top - U2DREL (Model Top Elevation)
OPEN/CLOSE  .\Data_ModelArrays\LayerElevations\Lay1Bottom.txt   1 (FREE) -1   # 5: BOTM - U2DREL (Bottom Elevation - Layer 1)
OPEN/CLOSE  .\Data_ModelArrays\LayerElevations\Lay2Bottom.txt   1 (FREE) -1   # 5: BOTM - U2DREL (Bottom Elevation - Layer 2)
OPEN/CLOSE  .\Data_ModelArrays\LayerElevations\Lay3Bottom.txt   1 (FREE) -1   # 5: BOTM - U2DREL (Bottom Elevation - Layer 3)
OPEN/CLOSE  .\Data_ModelArrays\LayerElevations\Lay4Bottom.txt   1 (FREE) -1   # 5: BOTM - U2DREL (Bottom Elevation - Layer 4)
OPEN/CLOSE  .\Data_ModelArrays\LayerElevations\Lay5Bottom.txt   1 (FREE) -1   # 5: BOTM - U2DREL (Bottom Elevation - Layer 5)
OPEN/CLOSE  .\Data_ModelArrays\LayerElevations\Lay6Bottom.txt   1 (FREE) -1   # 5: BOTM - U2DREL (Bottom Elevation - Layer 6)
OPEN/CLOSE  .\Data_ModelArrays\LayerElevations\Lay7Bottom.txt   1 (FREE) -1   # 5: BOTM - U2DREL (Bottom Elevation - Layer 7)
OPEN/CLOSE  .\Data_ModelArrays\LayerElevations\Lay8Bottom.txt   1 (FREE) -1   # 5: BOTM - U2DREL (Bottom Elevation - Layer 8)
OPEN/CLOSE  .\Data_ModelArrays\LayerElevations\Lay9Bottom.txt   1 (FREE) -1   # 5: BOTM - U2DREL (Bottom Elevation - Layer 9)
OPEN/CLOSE  .\Data_ModelArrays\LayerElevations\Lay10Bottom.txt  1 (FREE) -1   # 5: BOTM - U2DREL (Bottom Elevation - Layer 10)
30   2   1   TR   STARTDATE 04/01/1984                                        # 7: PERLEN, NSTP, TSMULT, SS/TR (SP 1 - Apr-1984)
31   2   1   TR                                                               # 7: PERLEN, NSTP, TSMULT, SS/TR (SP 2 - May-1984)
30   2   1   TR                                                               # 7: PERLEN, NSTP, TSMULT, SS/TR (SP 3 - Jun-1984)
31   2   1   TR                                                               # 7: PERLEN, NSTP, TSMULT, SS/TR (SP 4 - Jul-1984)
31   2   1   TR                                                               # 7: PERLEN, NSTP, TSMULT, SS/TR (SP 5 - Aug-1984)
30   2   1   TR                                                               # 7: PERLEN, NSTP, TSMULT, SS/TR (SP 6 - Sep-1984)
31   2   1   TR                                                               # 7: PERLEN, NSTP, TSMULT, SS/TR (SP 7 - Oct-1984)
30   2   1   TR                                                               # 7: PERLEN, NSTP, TSMULT, SS/TR (SP 8 - Nov-1984)
31   2   1   TR                                                               # 7: PERLEN, NSTP, TSMULT, SS/TR (SP 9 - Dec-1984)
31   2   1   TR                                                               # 7: PERLEN, NSTP, TSMULT, SS/TR (SP 10 - Jan-1985)
28   2   1   TR                                                               # 7: PERLEN, NSTP, TSMULT, SS/TR (SP 11 - Feb-1985)
31   2   1   TR                                                               # 7: PERLEN, NSTP, TSMULT, SS/TR (SP 12 - Mar-1985)
30   2   1   TR                                                               # 7: PERLEN, NSTP, TSMULT, SS/TR (SP 13 - Apr-1985)
31   2   1   TR                                                               # 7: PERLEN, NSTP, TSMULT, SS/TR (SP 14 - May-1985)
30   2   1   TR                                                               # 7: PERLEN, NSTP, TSMULT, SS/TR (SP 15 - Jun-1985)
31   2   1   TR                                                               # 7: PERLEN, NSTP, TSMULT, SS/TR (SP 16 - Jul-1985)
31   2   1   TR                                                               # 7: PERLEN, NSTP, TSMULT, SS/TR (SP 17 - Aug-1985)
30   2   1   TR                                                               # 7: PERLEN, NSTP, TSMULT, SS/TR (SP 18 - Sep-1985)
31   2   1   TR                                                               # 7: PERLEN, NSTP, TSMULT, SS/TR (SP 19 - Oct-1985)
30   2   1   TR                                                               # 7: PERLEN, NSTP, TSMULT, SS/TR (SP 20 - Nov-1985)
31   2   1   TR                                                               # 7: PERLEN, NSTP, TSMULT, SS/TR (SP 21 - Dec-1985)
31   2   1   TR                                                               # 7: PERLEN, NSTP, TSMULT, SS/TR (SP 22 - Jan-1986)
28   2   1   TR                                                               # 7: PERLEN, NSTP, TSMULT, SS/TR (SP 23 - Feb-1986)
31   2   1   TR                                                               # 7: PERLEN, NSTP, TSMULT, SS/TR (SP 24 - Mar-1986)
30   2   1   TR                                                               # 7: PERLEN, NSTP, TSMULT, SS/TR (SP 25 - Apr-1986)
31   2   1   TR                                                               # 7: PERLEN, NSTP, TSMULT, SS/TR (SP 26 - May-1986)
30   2   1   TR                                                               # 7: PERLEN, NSTP, TSMULT, SS/TR (SP 27 - Jun-1986)
31   2   1   TR                                                               # 7: PERLEN, NSTP, TSMULT, SS/TR (SP 28 - Jul-1986)
31   2   1   TR                                                               # 7: PERLEN, NSTP, TSMULT, SS/TR (SP 29 - Aug-1986)
30   2   1   TR                                                               # 7: PERLEN, NSTP, TSMULT, SS/TR (SP 30 - Sep-1986)
31   2   1   TR                                                               # 7: PERLEN, NSTP, TSMULT, SS/TR (SP 31 - Oct-1986)
30   2   1   TR                                                               # 7: PERLEN, NSTP, TSMULT, SS/TR (SP 32 - Nov-1986)
31   2   1   TR                                                               # 7: PERLEN, NSTP, TSMULT, SS/TR (SP 33 - Dec-1986)
31   2   1   TR                                                               # 7: PERLEN, NSTP, TSMULT, SS/TR (SP 34 - Jan-1987)
28   2   1   TR                                                               # 7: PERLEN, NSTP, TSMULT, SS/TR (SP 35 - Feb-1987)
31   2   1   TR                                                               # 7: PERLEN, NSTP, TSMULT, SS/TR (SP 36 - Mar-1987)
30   2   1   TR                                                               # 7: PERLEN, NSTP, TSMULT, SS/TR (SP 37 - Apr-1987)
31   2   1   TR                                                               # 7: PERLEN, NSTP, TSMULT, SS/TR (SP 38 - May-1987)
30   2   1   TR                                                               # 7: PERLEN, NSTP, TSMULT, SS/TR (SP 39 - Jun-1987)
31   2   1   TR                                                               # 7: PERLEN, NSTP, TSMULT, SS/TR (SP 40 - Jul-1987)
31   2   1   TR                                                               # 7: PERLEN, NSTP, TSMULT, SS/TR (SP 41 - Aug-1987)
30   2   1   TR                                                               # 7: PERLEN, NSTP, TSMULT, SS/TR (SP 42 - Sep-1987)
31   2   1   TR                                                               # 7: PERLEN, NSTP, TSMULT, SS/TR (SP 43 - Oct-1987)
30   2   1   TR                                                               # 7: PERLEN, NSTP, TSMULT, SS/TR (SP 44 - Nov-1987)
31   2   1   TR                                                               # 7: PERLEN, NSTP, TSMULT, SS/TR (SP 45 - Dec-1987)
31   2   1   TR                                                               # 7: PERLEN, NSTP, TSMULT, SS/TR (SP 46 - Jan-1988)
29   2   1   TR                                                               # 7: PERLEN, NSTP, TSMULT, SS/TR (SP 47 - Feb-1988)
31   2   1   TR                                                               # 7: PERLEN, NSTP, TSMULT, SS/TR (SP 48 - Mar-1988)
30   2   1   TR                                                               # 7: PERLEN, NSTP, TSMULT, SS/TR (SP 49 - Apr-1988)
31   2   1   TR                                                               # 7: PERLEN, NSTP, TSMULT, SS/TR (SP 50 - May-1988)
30   2   1   TR                                                               # 7: PERLEN, NSTP, TSMULT, SS/TR (SP 51 - Jun-1988)
31   2   1   TR                                                               # 7: PERLEN, NSTP, TSMULT, SS/TR (SP 52 - Jul-1988)
31   2   1   TR                                                               # 7: PERLEN, NSTP, TSMULT, SS/TR (SP 53 - Aug-1988)
30   2   1   TR                                                               # 7: PERLEN, NSTP, TSMULT, SS/TR (SP 54 - Sep-1988)
31   2   1   TR                                                               # 7: PERLEN, NSTP, TSMULT, SS/TR (SP 55 - Oct-1988)
30   2   1   TR                                                               # 7: PERLEN, NSTP, TSMULT, SS/TR (SP 56 - Nov-1988)
31   2   1   TR                                                               # 7: PERLEN, NSTP, TSMULT, SS/TR (SP 57 - Dec-1988)
31   2   1   TR                                                               # 7: PERLEN, NSTP, TSMULT, SS/TR (SP 58 - Jan-1989)
28   2   1   TR                                                               # 7: PERLEN, NSTP, TSMULT, SS/TR (SP 59 - Feb-1989)
31   2   1   TR                                                               # 7: PERLEN, NSTP, TSMULT, SS/TR (SP 60 - Mar-1989)
30   2   1   TR                                                               # 7: PERLEN, NSTP, TSMULT, SS/TR (SP 61 - Apr-1989)
31   2   1   TR                                                               # 7: PERLEN, NSTP, TSMULT, SS/TR (SP 62 - May-1989)
30   2   1   TR                                                               # 7: PERLEN, NSTP, TSMULT, SS/TR (SP 63 - Jun-1989)
31   2   1   TR                                                               # 7: PERLEN, NSTP, TSMULT, SS/TR (SP 64 - Jul-1989)
31   2   1   TR                                                               # 7: PERLEN, NSTP, TSMULT, SS/TR (SP 65 - Aug-1989)
30   2   1   TR                                                               # 7: PERLEN, NSTP, TSMULT, SS/TR (SP 66 - Sep-1989)
31   2   1   TR                                                               # 7: PERLEN, NSTP, TSMULT, SS/TR (SP 67 - Oct-1989)
30   2   1   TR                                                               # 7: PERLEN, NSTP, TSMULT, SS/TR (SP 68 - Nov-1989)
31   2   1   TR                                                               # 7: PERLEN, NSTP, TSMULT, SS/TR (SP 69 - Dec-1989)
31   2   1   TR                                                               # 7: PERLEN, NSTP, TSMULT, SS/TR (SP 70 - Jan-1990)
28   2   1   TR                                                               # 7: PERLEN, NSTP, TSMULT, SS/TR (SP 71 - Feb-1990)
31   2   1   TR                                                               # 7: PERLEN, NSTP, TSMULT, SS/TR (SP 72 - Mar-1990)
30   2   1   TR                                                               # 7: PERLEN, NSTP, TSMULT, SS/TR (SP 73 - Apr-1990)
31   2   1   TR                                                               # 7: PERLEN, NSTP, TSMULT, SS/TR (SP 74 - May-1990)
30   2   1   TR                                                               # 7: PERLEN, NSTP, TSMULT, SS/TR (SP 75 - Jun-1990)
31   2   1   TR                                                               # 7: PERLEN, NSTP, TSMULT, SS/TR (SP 76 - Jul-1990)
31   2   1   TR                                                               # 7: PERLEN, NSTP, TSMULT, SS/TR (SP 77 - Aug-1990)
30   2   1   TR                                                               # 7: PERLEN, NSTP, TSMULT, SS/TR (SP 78 - Sep-1990)
31   2   1   TR                                                               # 7: PERLEN, NSTP, TSMULT, SS/TR (SP 79 - Oct-1990)
30   2   1   TR                                                               # 7: PERLEN, NSTP, TSMULT, SS/TR (SP 80 - Nov-1990)
31   2   1   TR                                                               # 7: PERLEN, NSTP, TSMULT, SS/TR (SP 81 - Dec-1990)
31   2   1   TR                                                               # 7: PERLEN, NSTP, TSMULT, SS/TR (SP 82 - Jan-1991)
28   2   1   TR                                                               # 7: PERLEN, NSTP, TSMULT, SS/TR (SP 83 - Feb-1991)
31   2   1   TR                                                               # 7: PERLEN, NSTP, TSMULT, SS/TR (SP 84 - Mar-1991)
30   2   1   TR                                                               # 7: PERLEN, NSTP, TSMULT, SS/TR (SP 85 - Apr-1991)
31   2   1   TR                                                               # 7: PERLEN, NSTP, TSMULT, SS/TR (SP 86 - May-1991)
30   2   1   TR                                                               # 7: PERLEN, NSTP, TSMULT, SS/TR (SP 87 - Jun-1991)
31   2   1   TR                                                               # 7: PERLEN, NSTP, TSMULT, SS/TR (SP 88 - Jul-1991)
31   2   1   TR                                                               # 7: PERLEN, NSTP, TSMULT, SS/TR (SP 89 - Aug-1991)
30   2   1   TR                                                               # 7: PERLEN, NSTP, TSMULT, SS/TR (SP 90 - Sep-1991)
31   2   1   TR                                                               # 7: PERLEN, NSTP, TSMULT, SS/TR (SP 91 - Oct-1991)
30   2   1   TR                                                               # 7: PERLEN, NSTP, TSMULT, SS/TR (SP 92 - Nov-1991)
31   2   1   TR                                                               # 7: PERLEN, NSTP, TSMULT, SS/TR (SP 93 - Dec-1991)
31   2   1   TR                                                               # 7: PERLEN, NSTP, TSMULT, SS/TR (SP 94 - Jan-1992)
29   2   1   TR                                                               # 7: PERLEN, NSTP, TSMULT, SS/TR (SP 95 - Feb-1992)
31   2   1   TR                                                               # 7: PERLEN, NSTP, TSMULT, SS/TR (SP 96 - Mar-1992)
30   2   1   TR                                                               # 7: PERLEN, NSTP, TSMULT, SS/TR (SP 97 - Apr-1992)
31   2   1   TR                                                               # 7: PERLEN, NSTP, TSMULT, SS/TR (SP 98 - May-1992)
30   2   1   TR                                                               # 7: PERLEN, NSTP, TSMULT, SS/TR (SP 99 - Jun-1992)
31   2   1   TR                                                               # 7: PERLEN, NSTP, TSMULT, SS/TR (SP 100 - Jul-1992)
31   2   1   TR                                                               # 7: PERLEN, NSTP, TSMULT, SS/TR (SP 101 - Aug-1992)
30   2   1   TR                                                               # 7: PERLEN, NSTP, TSMULT, SS/TR (SP 102 - Sep-1992)
31   2   1   TR                                                               # 7: PERLEN, NSTP, TSMULT, SS/TR (SP 103 - Oct-1992)
30   2   1   TR                                                               # 7: PERLEN, NSTP, TSMULT, SS/TR (SP 104 - Nov-1992)
31   2   1   TR                                                               # 7: PERLEN, NSTP, TSMULT, SS/TR (SP 105 - Dec-1992)
31   2   1   TR                                                               # 7: PERLEN, NSTP, TSMULT, SS/TR (SP 106 - Jan-1993)
28   2   1   TR                                                               # 7: PERLEN, NSTP, TSMULT, SS/TR (SP 107 - Feb-1993)
31   2   1   TR                                                               # 7: PERLEN, NSTP, TSMULT, SS/TR (SP 108 - Mar-1993)
30   2   1   TR                                                               # 7: PERLEN, NSTP, TSMULT, SS/TR (SP 109 - Apr-1993)
31   2   1   TR                                                               # 7: PERLEN, NSTP, TSMULT, SS/TR (SP 110 - May-1993)
30   2   1   TR                                                               # 7: PERLEN, NSTP, TSMULT, SS/TR (SP 111 - Jun-1993)
31   2   1   TR                                                               # 7: PERLEN, NSTP, TSMULT, SS/TR (SP 112 - Jul-1993)
31   2   1   TR                                                               # 7: PERLEN, NSTP, TSMULT, SS/TR (SP 113 - Aug-1993)
30   2   1   TR                                                               # 7: PERLEN, NSTP, TSMULT, SS/TR (SP 114 - Sep-1993)
31   2   1   TR                                                               # 7: PERLEN, NSTP, TSMULT, SS/TR (SP 115 - Oct-1993)
30   2   1   TR                                                               # 7: PERLEN, NSTP, TSMULT, SS/TR (SP 116 - Nov-1993)
31   2   1   TR                                                               # 7: PERLEN, NSTP, TSMULT, SS/TR (SP 117 - Dec-1993)
31   2   1   TR                                                               # 7: PERLEN, NSTP, TSMULT, SS/TR (SP 118 - Jan-1994)
28   2   1   TR                                                               # 7: PERLEN, NSTP, TSMULT, SS/TR (SP 119 - Feb-1994)
31   2   1   TR                                                               # 7: PERLEN, NSTP, TSMULT, SS/TR (SP 120 - Mar-1994)
30   2   1   TR                                                               # 7: PERLEN, NSTP, TSMULT, SS/TR (SP 121 - Apr-1994)
31   2   1   TR                                                               # 7: PERLEN, NSTP, TSMULT, SS/TR (SP 122 - May-1994)
30   2   1   TR                                                               # 7: PERLEN, NSTP, TSMULT, SS/TR (SP 123 - Jun-1994)
31   2   1   TR                                                               # 7: PERLEN, NSTP, TSMULT, SS/TR (SP 124 - Jul-1994)
31   2   1   TR                                                               # 7: PERLEN, NSTP, TSMULT, SS/TR (SP 125 - Aug-1994)
30   2   1   TR                                                               # 7: PERLEN, NSTP, TSMULT, SS/TR (SP 126 - Sep-1994)
31   2   1   TR                                                               # 7: PERLEN, NSTP, TSMULT, SS/TR (SP 127 - Oct-1994)
30   2   1   TR                                                               # 7: PERLEN, NSTP, TSMULT, SS/TR (SP 128 - Nov-1994)
31   2   1   TR                                                               # 7: PERLEN, NSTP, TSMULT, SS/TR (SP 129 - Dec-1994)
31   2   1   TR                                                               # 7: PERLEN, NSTP, TSMULT, SS/TR (SP 130 - Jan-1995)
28   2   1   TR                                                               # 7: PERLEN, NSTP, TSMULT, SS/TR (SP 131 - Feb-1995)
31   2   1   TR                                                               # 7: PERLEN, NSTP, TSMULT, SS/TR (SP 132 - Mar-1995)
30   2   1   TR                                                               # 7: PERLEN, NSTP, TSMULT, SS/TR (SP 133 - Apr-1995)
31   2   1   TR                                                               # 7: PERLEN, NSTP, TSMULT, SS/TR (SP 134 - May-1995)
30   2   1   TR                                                               # 7: PERLEN, NSTP, TSMULT, SS/TR (SP 135 - Jun-1995)
31   2   1   TR                                                               # 7: PERLEN, NSTP, TSMULT, SS/TR (SP 136 - Jul-1995)
31   2   1   TR                                                               # 7: PERLEN, NSTP, TSMULT, SS/TR (SP 137 - Aug-1995)
30   2   1   TR                                                               # 7: PERLEN, NSTP, TSMULT, SS/TR (SP 138 - Sep-1995)
31   2   1   TR                                                               # 7: PERLEN, NSTP, TSMULT, SS/TR (SP 139 - Oct-1995)
30   2   1   TR                                                               # 7: PERLEN, NSTP, TSMULT, SS/TR (SP 140 - Nov-1995)
31   2   1   TR                                                               # 7: PERLEN, NSTP, TSMULT, SS/TR (SP 141 - Dec-1995)
31   2   1   TR                                                               # 7: PERLEN, NSTP, TSMULT, SS/TR (SP 142 - Jan-1996)
29   2   1   TR                                                               # 7: PERLEN, NSTP, TSMULT, SS/TR (SP 143 - Feb-1996)
31   2   1   TR                                                               # 7: PERLEN, NSTP, TSMULT, SS/TR (SP 144 - Mar-1996)
30   2   1   TR                                                               # 7: PERLEN, NSTP, TSMULT, SS/TR (SP 145 - Apr-1996)
31   2   1   TR                                                               # 7: PERLEN, NSTP, TSMULT, SS/TR (SP 146 - May-1996)
30   2   1   TR                                                               # 7: PERLEN, NSTP, TSMULT, SS/TR (SP 147 - Jun-1996)
31   2   1   TR                                                               # 7: PERLEN, NSTP, TSMULT, SS/TR (SP 148 - Jul-1996)
31   2   1   TR                                                               # 7: PERLEN, NSTP, TSMULT, SS/TR (SP 149 - Aug-1996)
30   2   1   TR                                                               # 7: PERLEN, NSTP, TSMULT, SS/TR (SP 150 - Sep-1996)
31   2   1   TR                                                               # 7: PERLEN, NSTP, TSMULT, SS/TR (SP 151 - Oct-1996)
30   2   1   TR                                                               # 7: PERLEN, NSTP, TSMULT, SS/TR (SP 152 - Nov-1996)
31   2   1   TR                                                               # 7: PERLEN, NSTP, TSMULT, SS/TR (SP 153 - Dec-1996)
31   2   1   TR                                                               # 7: PERLEN, NSTP, TSMULT, SS/TR (SP 154 - Jan-1997)
28   2   1   TR                                                               # 7: PERLEN, NSTP, TSMULT, SS/TR (SP 155 - Feb-1997)
31   2   1   TR                                                               # 7: PERLEN, NSTP, TSMULT, SS/TR (SP 156 - Mar-1997)
30   2   1   TR                                                               # 7: PERLEN, NSTP, TSMULT, SS/TR (SP 157 - Apr-1997)
31   2   1   TR                                                               # 7: PERLEN, NSTP, TSMULT, SS/TR (SP 158 - May-1997)
30   2   1   TR                                                               # 7: PERLEN, NSTP, TSMULT, SS/TR (SP 159 - Jun-1997)
31   2   1   TR                                                               # 7: PERLEN, NSTP, TSMULT, SS/TR (SP 160 - Jul-1997)
31   2   1   TR                                                               # 7: PERLEN, NSTP, TSMULT, SS/TR (SP 161 - Aug-1997)
30   2   1   TR                                                               # 7: PERLEN, NSTP, TSMULT, SS/TR (SP 162 - Sep-1997)
31   2   1   TR                                                               # 7: PERLEN, NSTP, TSMULT, SS/TR (SP 163 - Oct-1997)
30   2   1   TR                                                               # 7: PERLEN, NSTP, TSMULT, SS/TR (SP 164 - Nov-1997)
31   2   1   TR                                                               # 7: PERLEN, NSTP, TSMULT, SS/TR (SP 165 - Dec-1997)
31   2   1   TR                                                               # 7: PERLEN, NSTP, TSMULT, SS/TR (SP 166 - Jan-1998)
28   2   1   TR                                                               # 7: PERLEN, NSTP, TSMULT, SS/TR (SP 167 - Feb-1998)
31   2   1   TR                                                               # 7: PERLEN, NSTP, TSMULT, SS/TR (SP 168 - Mar-1998)
30   2   1   TR                                                               # 7: PERLEN, NSTP, TSMULT, SS/TR (SP 169 - Apr-1998)
31   2   1   TR                                                               # 7: PERLEN, NSTP, TSMULT, SS/TR (SP 170 - May-1998)
30   2   1   TR                                                               # 7: PERLEN, NSTP, TSMULT, SS/TR (SP 171 - Jun-1998)
31   2   1   TR                                                               # 7: PERLEN, NSTP, TSMULT, SS/TR (SP 172 - Jul-1998)
31   2   1   TR                                                               # 7: PERLEN, NSTP, TSMULT, SS/TR (SP 173 - Aug-1998)
30   2   1   TR                                                               # 7: PERLEN, NSTP, TSMULT, SS/TR (SP 174 - Sep-1998)
31   2   1   TR                                                               # 7: PERLEN, NSTP, TSMULT, SS/TR (SP 175 - Oct-1998)
30   2   1   TR                                                               # 7: PERLEN, NSTP, TSMULT, SS/TR (SP 176 - Nov-1998)
31   2   1   TR                                                               # 7: PERLEN, NSTP, TSMULT, SS/TR (SP 177 - Dec-1998)
31   2   1   TR                                                               # 7: PERLEN, NSTP, TSMULT, SS/TR (SP 178 - Jan-1999)
28   2   1   TR                                                               # 7: PERLEN, NSTP, TSMULT, SS/TR (SP 179 - Feb-1999)
31   2   1   TR                                                               # 7: PERLEN, NSTP, TSMULT, SS/TR (SP 180 - Mar-1999)
30   2   1   TR                                                               # 7: PERLEN, NSTP, TSMULT, SS/TR (SP 181 - Apr-1999)
31   2   1   TR                                                               # 7: PERLEN, NSTP, TSMULT, SS/TR (SP 182 - May-1999)
30   2   1   TR                                                               # 7: PERLEN, NSTP, TSMULT, SS/TR (SP 183 - Jun-1999)
31   2   1   TR                                                               # 7: PERLEN, NSTP, TSMULT, SS/TR (SP 184 - Jul-1999)
31   2   1   TR                                                               # 7: PERLEN, NSTP, TSMULT, SS/TR (SP 185 - Aug-1999)
30   2   1   TR                                                               # 7: PERLEN, NSTP, TSMULT, SS/TR (SP 186 - Sep-1999)
31   2   1   TR                                                               # 7: PERLEN, NSTP, TSMULT, SS/TR (SP 187 - Oct-1999)
30   2   1   TR                                                               # 7: PERLEN, NSTP, TSMULT, SS/TR (SP 188 - Nov-1999)
31   2   1   TR                                                               # 7: PERLEN, NSTP, TSMULT, SS/TR (SP 189 - Dec-1999)
31   2   1   TR                                                               # 7: PERLEN, NSTP, TSMULT, SS/TR (SP 190 - Jan-2000)
29   2   1   TR                                                               # 7: PERLEN, NSTP, TSMULT, SS/TR (SP 191 - Feb-2000)
31   2   1   TR                                                               # 7: PERLEN, NSTP, TSMULT, SS/TR (SP 192 - Mar-2000)
30   2   1   TR                                                               # 7: PERLEN, NSTP, TSMULT, SS/TR (SP 193 - Apr-2000)
31   2   1   TR                                                               # 7: PERLEN, NSTP, TSMULT, SS/TR (SP 194 - May-2000)
30   2   1   TR                                                               # 7: PERLEN, NSTP, TSMULT, SS/TR (SP 195 - Jun-2000)
31   2   1   TR                                                               # 7: PERLEN, NSTP, TSMULT, SS/TR (SP 196 - Jul-2000)
31   2   1   TR                                                               # 7: PERLEN, NSTP, TSMULT, SS/TR (SP 197 - Aug-2000)
30   2   1   TR                                                               # 7: PERLEN, NSTP, TSMULT, SS/TR (SP 198 - Sep-2000)
31   2   1   TR                                                               # 7: PERLEN, NSTP, TSMULT, SS/TR (SP 199 - Oct-2000)
30   2   1   TR                                                               # 7: PERLEN, NSTP, TSMULT, SS/TR (SP 200 - Nov-2000)
31   2   1   TR                                                               # 7: PERLEN, NSTP, TSMULT, SS/TR (SP 201 - Dec-2000)
31   2   1   TR                                                               # 7: PERLEN, NSTP, TSMULT, SS/TR (SP 202 - Jan-2001)
28   2   1   TR                                                               # 7: PERLEN, NSTP, TSMULT, SS/TR (SP 203 - Feb-2001)
31   2   1   TR                                                               # 7: PERLEN, NSTP, TSMULT, SS/TR (SP 204 - Mar-2001)
30   2   1   TR                                                               # 7: PERLEN, NSTP, TSMULT, SS/TR (SP 205 - Apr-2001)
31   2   1   TR                                                               # 7: PERLEN, NSTP, TSMULT, SS/TR (SP 206 - May-2001)
30   2   1   TR                                                               # 7: PERLEN, NSTP, TSMULT, SS/TR (SP 207 - Jun-2001)
31   2   1   TR                                                               # 7: PERLEN, NSTP, TSMULT, SS/TR (SP 208 - Jul-2001)
31   2   1   TR                                                               # 7: PERLEN, NSTP, TSMULT, SS/TR (SP 209 - Aug-2001)
30   2   1   TR                                                               # 7: PERLEN, NSTP, TSMULT, SS/TR (SP 210 - Sep-2001)
31   2   1   TR                                                               # 7: PERLEN, NSTP, TSMULT, SS/TR (SP 211 - Oct-2001)
30   2   1   TR                                                               # 7: PERLEN, NSTP, TSMULT, SS/TR (SP 212 - Nov-2001)
31   2   1   TR                                                               # 7: PERLEN, NSTP, TSMULT, SS/TR (SP 213 - Dec-2001)
31   2   1   TR                                                               # 7: PERLEN, NSTP, TSMULT, SS/TR (SP 214 - Jan-2002)
28   2   1   TR                                                               # 7: PERLEN, NSTP, TSMULT, SS/TR (SP 215 - Feb-2002)